100
LJ particles
Ar 2.028117152397e+00 2.044680571993e+00 2.511869993897e+00
Ar 4.243158195552e-01 2.144765012119e+00 7.018002171828e+00
Ar 7.398297121975e-01 2.705071030704e+00 9.511830451635e+00
Ar 3.903596991292e-01 2.251252646478e+00 1.190710629899e+01
Ar 4.609862276450e-01 5.887652200725e+00 9.542484801424e-01
Ar 3.328911090523e+00 5.472967702882e+00 6.044936385692e+00
Ar 7.447247258407e-01 5.804145264149e+00 1.004606909543e+01
Ar 2.681134932513e+00 5.533465630921e+00 1.237765291706e+01
Ar 1.701728381239e+00 1.075682381737e+01 4.997589919761e-01
Ar 2.923936961905e+00 8.572482082479e+00 6.754061536679e+00
Ar 1.991047801430e+00 9.264826045067e+00 7.907970471644e+00
Ar 3.814829667270e-01 1.006776701535e+01 1.371548160998e+01
Ar 1.609742778671e+00 1.440039971534e+01 4.022167903262e-01
Ar 5.744578579410e-01 1.282529704164e+01 6.723325415230e+00
Ar 2.891381556065e+00 1.436388973563e+01 8.136122169719e+00
Ar 1.516966246430e+00 1.429857169483e+01 1.397309455970e+01
Ar 6.365252629931e+00 8.974475549971e-01 2.362920098689e+00
Ar 6.015374783708e+00 2.657360131225e+00 4.752316404154e+00
Ar 6.424045190781e+00 2.901351364853e+00 8.263924900974e+00
Ar 5.203052712967e+00 1.952366172440e+00 1.171588748569e+01
Ar 5.185124096611e+00 6.619844180835e+00 2.382874879988e+00
Ar 5.633423692116e+00 5.069522014689e+00 5.796180233706e+00
Ar 5.455944875773e+00 5.515878449200e+00 9.109023022324e+00
Ar 4.631341191078e+00 5.951834376998e+00 1.354366172405e+01
Ar 5.653202144580e+00 1.027231889150e+01 5.620469490538e-01
Ar 5.336780279203e+00 8.530294583393e+00 5.511783274349e+00
Ar 6.465412925967e+00 1.074311353226e+01 8.947576982415e+00
Ar 5.073000102034e+00 7.995564933361e+00 1.221677293660e+01
Ar 7.062999899904e+00 1.249311046231e+01 7.256877086332e-01
Ar 5.402974080593e+00 1.313239948969e+01 6.860940423518e+00
Ar 5.054605724004e+00 1.445322242113e+01 8.802115786184e+00
Ar 4.274705968801e+00 1.215272633465e+01 1.413894420054e+01
Ar 9.584752101635e+00 8.242192927432e-01 3.833356082281e-01
Ar 9.128878889549e+00 2.781787658997e+00 5.289364419412e+00
Ar 8.376845018656e+00 1.801846327396e+00 9.193586659965e+00
Ar 9.537644702655e+00 1.659352566917e+00 1.445117824628e+01
Ar 1.037403266419e+01 6.098384826086e+00 1.227654354884e+00
Ar 8.358384529304e+00 5.396064055701e+00 4.925472624805e+00
Ar 9.840398679655e+00 6.119538331059e+00 1.081959248052e+01
Ar 9.178587916824e+00 4.936432204047e+00 1.268760962594e+01
Ar 9.442806767930e+00 1.041105245769e+01 2.090390320700e+00
Ar 8.050937040993e+00 8.374083498056e+00 5.445058126073e+00
Ar 1.076376784923e+01 9.695699791033e+00 9.959275301523e+00
Ar 8.635086063157e+00 9.164661626021e+00 1.256443930839e+01
Ar 8.243078062822e+00 1.453578642022e+01 9.261371326683e-01
Ar 9.503834936508e+00 1.325979050805e+01 6.224394346085e+00
Ar 1.013098445010e+01 1.215313540906e+01 8.275108072486e+00
Ar 9.392238571860e+00 1.289516312353e+01 1.387289647763e+01
Ar 1.282514124105e+01 2.079813453035e+00 7.352731583279e-01
Ar 1.198348289350e+01 1.034931715602e+00 4.771151608854e+00
Ar 1.439556037521e+01 8.285072295993e-01 8.645611220452e+00
Ar 1.207508439456e+01 8.626262620330e-01 1.399384327022e+01
Ar 1.328994805283e+01 6.270235398703e+00 2.551207523568e+00
Ar 1.383027779007e+01 5.368684330928e+00 5.674820650242e+00
Ar 1.409233781825e+01 5.901930099052e+00 9.559615500969e+00
Ar 1.376088828891e+01 5.565547046978e+00 1.343510615648e+01
Ar 1.181796354318e+01 9.098641475528e+00 9.633123615440e-01
Ar 1.294940419872e+01 7.963664631912e+00 6.546818201865e+00
Ar 1.430593242969e+01 9.280783822419e+00 8.748348770964e+00
Ar 1.451256720260e+01 9.512253633018e+00 1.419329115875e+01
Ar 1.192704277067e+01 1.393636610070e+01 6.670076067844e-01
Ar 1.249429951047e+01 1.354359760061e+01 5.830250267363e+00
Ar 1.180388592970e+01 1.248836502777e+01 1.030238727267e+01
Ar 1.309528682202e+01 1.450683277528e+01 1.326361948178e+01
Ar 2.707819558690e+00 2.812337863945e+00 2.265023805621e+00
Ar 2.158674582496e+00 1.315987014007e+00 4.708320581979e+00
Ar 4.217077210170e-01 2.706408695567e+00 8.032579376762e+00
Ar 1.270880086925e+00 2.473010379401e+00 1.389775797294e+01
Ar 2.948857237440e+00 6.186409286651e+00 3.197808001344e+00
Ar 2.895130153173e+00 4.517711606927e+00 4.291382199044e+00
Ar 3.021809165387e+00 4.451881797087e+00 8.186718227989e+00
Ar 3.889843143003e-01 4.340242827748e+00 1.235786920093e+01
Ar 1.583115631515e+00 8.951046757601e+00 3.121328676507e+00
Ar 2.443678169428e+00 1.038351105525e+01 6.264814589245e+00
Ar 1.382432641024e+00 1.043452519423e+01 1.064241589840e+01
Ar 6.108179433784e-01 8.429019554596e+00 1.348379397040e+01
Ar 1.606338141732e+00 1.298044895922e+01 3.212576351702e+00
Ar 1.282963095563e+00 1.292193155675e+01 7.107810996015e+00
Ar 1.463449001359e+00 1.282453450088e+01 9.022898312177e+00
Ar 1.517099291332e+00 1.172818436805e+01 1.249644517791e+01
Ar 5.144158277139e+00 2.319684362681e+00 2.369290859474e+00
Ar 5.049688861247e+00 3.319503181715e+00 4.911384732806e+00
Ar 6.410813734802e+00 1.236757741183e+00 8.341819521781e+00
Ar 4.836555522917e+00 3.233739213064e+00 1.179704707823e+01
Ar 5.469606696755e+00 7.103630225805e+00 3.798633074755e-01
Ar 4.274830774879e+00 6.219495831508e+00 4.187915459586e+00
Ar 6.321602457529e+00 4.744243092791e+00 1.084317136106e+01
Ar 6.845667285827e+00 6.984409874516e+00 1.426472841071e+01
Ar 6.855461762045e+00 9.651761289780e+00 1.889748330457e+00
Ar 4.482334097009e+00 9.817951101725e+00 5.342978818955e+00
Ar 5.405850920307e+00 9.201930526953e+00 8.415935842760e+00
Ar 4.223352563628e+00 8.180777591255e+00 1.212003526108e+01
Ar 4.282257957709e+00 1.331155418133e+01 9.198529284744e-01
Ar 5.390299151566e+00 1.250131303463e+01 5.826624949167e+00
Ar 4.360140487898e+00 1.191399962684e+01 8.049563474922e+00
Ar 5.820684977192e+00 1.277798722783e+01 1.317450076253e+01
Ar 9.637842773771e+00 3.184589477401e+00 5.963484856207e-01
Ar 9.207012551949e+00 1.002704616467e+00 6.589370303148e+00
Ar 8.843832779807e+00 2.875369185457e+00 9.096321053838e+00
Ar 1.008817499827e+01 1.639429114719e+00 1.237316186988e+01
